
#======================================================================
# CRYSTAL DATA
#----------------------------------------------------------------------
data_VESTA_phase_1

_chemical_name_common                  'XCrySDen XSF file'
_cell_length_a                         8.099877
_cell_length_b                         8.099877
_cell_length_c                         8.099877
_cell_angle_alpha                      90.000000
_cell_angle_beta                       90.000000
_cell_angle_gamma                      90.000000
_cell_volume                           531.416861
_space_group_name_H-M_alt              'F m -3 m'
_space_group_IT_number                 225

loop_
_space_group_symop_operation_xyz
   'x, y, z'
   '-x, -y, -z'
   '-x, -y, z'
   'x, y, -z'
   '-x, y, -z'
   'x, -y, z'
   'x, -y, -z'
   '-x, y, z'
   'z, x, y'
   '-z, -x, -y'
   'z, -x, -y'
   '-z, x, y'
   '-z, -x, y'
   'z, x, -y'
   '-z, x, -y'
   'z, -x, y'
   'y, z, x'
   '-y, -z, -x'
   '-y, z, -x'
   'y, -z, x'
   'y, -z, -x'
   '-y, z, x'
   '-y, -z, x'
   'y, z, -x'
   'y, x, -z'
   '-y, -x, z'
   '-y, -x, -z'
   'y, x, z'
   'y, -x, z'
   '-y, x, -z'
   '-y, x, z'
   'y, -x, -z'
   'x, z, -y'
   '-x, -z, y'
   '-x, z, y'
   'x, -z, -y'
   '-x, -z, -y'
   'x, z, y'
   'x, -z, y'
   '-x, z, -y'
   'z, y, -x'
   '-z, -y, x'
   'z, -y, x'
   '-z, y, -x'
   '-z, y, x'
   'z, -y, -x'
   '-z, -y, -x'
   'z, y, x'
   'x, y+1/4, z+1/4'
   '-x, -y+1/4, -z+1/4'
   '-x, -y+1/4, z+1/4'
   'x, y+1/4, -z+1/4'
   '-x, y+1/4, -z+1/4'
   'x, -y+1/4, z+1/4'
   'x, -y+1/4, -z+1/4'
   '-x, y+1/4, z+1/4'
   'z, x+1/4, y+1/4'
   '-z, -x+1/4, -y+1/4'
   'z, -x+1/4, -y+1/4'
   '-z, x+1/4, y+1/4'
   '-z, -x+1/4, y+1/4'
   'z, x+1/4, -y+1/4'
   '-z, x+1/4, -y+1/4'
   'z, -x+1/4, y+1/4'
   'y, z+1/4, x+1/4'
   '-y, -z+1/4, -x+1/4'
   '-y, z+1/4, -x+1/4'
   'y, -z+1/4, x+1/4'
   'y, -z+1/4, -x+1/4'
   '-y, z+1/4, x+1/4'
   '-y, -z+1/4, x+1/4'
   'y, z+1/4, -x+1/4'
   'y, x+1/4, -z+1/4'
   '-y, -x+1/4, z+1/4'
   '-y, -x+1/4, -z+1/4'
   'y, x+1/4, z+1/4'
   'y, -x+1/4, z+1/4'
   '-y, x+1/4, -z+1/4'
   '-y, x+1/4, z+1/4'
   'y, -x+1/4, -z+1/4'
   'x, z+1/4, -y+1/4'
   '-x, -z+1/4, y+1/4'
   '-x, z+1/4, y+1/4'
   'x, -z+1/4, -y+1/4'
   '-x, -z+1/4, -y+1/4'
   'x, z+1/4, y+1/4'
   'x, -z+1/4, y+1/4'
   '-x, z+1/4, -y+1/4'
   'z, y+1/4, -x+1/4'
   '-z, -y+1/4, x+1/4'
   'z, -y+1/4, x+1/4'
   '-z, y+1/4, -x+1/4'
   '-z, y+1/4, x+1/4'
   'z, -y+1/4, -x+1/4'
   '-z, -y+1/4, -x+1/4'
   'z, y+1/4, x+1/4'
   'x+1/4, y, z+1/4'
   '-x+1/4, -y, -z+1/4'
   '-x+1/4, -y, z+1/4'
   'x+1/4, y, -z+1/4'
   '-x+1/4, y, -z+1/4'
   'x+1/4, -y, z+1/4'
   'x+1/4, -y, -z+1/4'
   '-x+1/4, y, z+1/4'
   'z+1/4, x, y+1/4'
   '-z+1/4, -x, -y+1/4'
   'z+1/4, -x, -y+1/4'
   '-z+1/4, x, y+1/4'
   '-z+1/4, -x, y+1/4'
   'z+1/4, x, -y+1/4'
   '-z+1/4, x, -y+1/4'
   'z+1/4, -x, y+1/4'
   'y+1/4, z, x+1/4'
   '-y+1/4, -z, -x+1/4'
   '-y+1/4, z, -x+1/4'
   'y+1/4, -z, x+1/4'
   'y+1/4, -z, -x+1/4'
   '-y+1/4, z, x+1/4'
   '-y+1/4, -z, x+1/4'
   'y+1/4, z, -x+1/4'
   'y+1/4, x, -z+1/4'
   '-y+1/4, -x, z+1/4'
   '-y+1/4, -x, -z+1/4'
   'y+1/4, x, z+1/4'
   'y+1/4, -x, z+1/4'
   '-y+1/4, x, -z+1/4'
   '-y+1/4, x, z+1/4'
   'y+1/4, -x, -z+1/4'
   'x+1/4, z, -y+1/4'
   '-x+1/4, -z, y+1/4'
   '-x+1/4, z, y+1/4'
   'x+1/4, -z, -y+1/4'
   '-x+1/4, -z, -y+1/4'
   'x+1/4, z, y+1/4'
   'x+1/4, -z, y+1/4'
   '-x+1/4, z, -y+1/4'
   'z+1/4, y, -x+1/4'
   '-z+1/4, -y, x+1/4'
   'z+1/4, -y, x+1/4'
   '-z+1/4, y, -x+1/4'
   '-z+1/4, y, x+1/4'
   'z+1/4, -y, -x+1/4'
   '-z+1/4, -y, -x+1/4'
   'z+1/4, y, x+1/4'
   'x+1/4, y+1/4, z'
   '-x+1/4, -y+1/4, -z'
   '-x+1/4, -y+1/4, z'
   'x+1/4, y+1/4, -z'
   '-x+1/4, y+1/4, -z'
   'x+1/4, -y+1/4, z'
   'x+1/4, -y+1/4, -z'
   '-x+1/4, y+1/4, z'
   'z+1/4, x+1/4, y'
   '-z+1/4, -x+1/4, -y'
   'z+1/4, -x+1/4, -y'
   '-z+1/4, x+1/4, y'
   '-z+1/4, -x+1/4, y'
   'z+1/4, x+1/4, -y'
   '-z+1/4, x+1/4, -y'
   'z+1/4, -x+1/4, y'
   'y+1/4, z+1/4, x'
   '-y+1/4, -z+1/4, -x'
   '-y+1/4, z+1/4, -x'
   'y+1/4, -z+1/4, x'
   'y+1/4, -z+1/4, -x'
   '-y+1/4, z+1/4, x'
   '-y+1/4, -z+1/4, x'
   'y+1/4, z+1/4, -x'
   'y+1/4, x+1/4, -z'
   '-y+1/4, -x+1/4, z'
   '-y+1/4, -x+1/4, -z'
   'y+1/4, x+1/4, z'
   'y+1/4, -x+1/4, z'
   '-y+1/4, x+1/4, -z'
   '-y+1/4, x+1/4, z'
   'y+1/4, -x+1/4, -z'
   'x+1/4, z+1/4, -y'
   '-x+1/4, -z+1/4, y'
   '-x+1/4, z+1/4, y'
   'x+1/4, -z+1/4, -y'
   '-x+1/4, -z+1/4, -y'
   'x+1/4, z+1/4, y'
   'x+1/4, -z+1/4, y'
   '-x+1/4, z+1/4, -y'
   'z+1/4, y+1/4, -x'
   '-z+1/4, -y+1/4, x'
   'z+1/4, -y+1/4, x'
   '-z+1/4, y+1/4, -x'
   '-z+1/4, y+1/4, x'
   'z+1/4, -y+1/4, -x'
   '-z+1/4, -y+1/4, -x'
   'z+1/4, y+1/4, x'
   'x, y, z+1/2'
   '-x, -y, -z+1/2'
   '-x, -y, z+1/2'
   'x, y, -z+1/2'
   '-x, y, -z+1/2'
   'x, -y, z+1/2'
   'x, -y, -z+1/2'
   '-x, y, z+1/2'
   'z+1/2, x, y'
   '-z+1/2, -x, -y'
   'z+1/2, -x, -y'
   '-z+1/2, x, y'
   '-z+1/2, -x, y'
   'z+1/2, x, -y'
   '-z+1/2, x, -y'
   'z+1/2, -x, y'
   'y, z+1/2, x'
   '-y, -z+1/2, -x'
   '-y, z+1/2, -x'
   'y, -z+1/2, x'
   'y, -z+1/2, -x'
   '-y, z+1/2, x'
   '-y, -z+1/2, x'
   'y, z+1/2, -x'
   'y, x, -z+1/2'
   '-y, -x, z+1/2'
   '-y, -x, -z+1/2'
   'y, x, z+1/2'
   'y, -x, z+1/2'
   '-y, x, -z+1/2'
   '-y, x, z+1/2'
   'y, -x, -z+1/2'
   'x, z+1/2, -y'
   '-x, -z+1/2, y'
   '-x, z+1/2, y'
   'x, -z+1/2, -y'
   '-x, -z+1/2, -y'
   'x, z+1/2, y'
   'x, -z+1/2, y'
   '-x, z+1/2, -y'
   'z+1/2, y, -x'
   '-z+1/2, -y, x'
   'z+1/2, -y, x'
   '-z+1/2, y, -x'
   '-z+1/2, y, x'
   'z+1/2, -y, -x'
   '-z+1/2, -y, -x'
   'z+1/2, y, x'
   'x, y+1/4, z+3/4'
   '-x, -y+1/4, -z+3/4'
   '-x, -y+1/4, z+3/4'
   'x, y+1/4, -z+3/4'
   '-x, y+1/4, -z+3/4'
   'x, -y+1/4, z+3/4'
   'x, -y+1/4, -z+3/4'
   '-x, y+1/4, z+3/4'
   'z+1/2, x+1/4, y+1/4'
   '-z+1/2, -x+1/4, -y+1/4'
   'z+1/2, -x+1/4, -y+1/4'
   '-z+1/2, x+1/4, y+1/4'
   '-z+1/2, -x+1/4, y+1/4'
   'z+1/2, x+1/4, -y+1/4'
   '-z+1/2, x+1/4, -y+1/4'
   'z+1/2, -x+1/4, y+1/4'
   'y, z+3/4, x+1/4'
   '-y, -z+3/4, -x+1/4'
   '-y, z+3/4, -x+1/4'
   'y, -z+3/4, x+1/4'
   'y, -z+3/4, -x+1/4'
   '-y, z+3/4, x+1/4'
   '-y, -z+3/4, x+1/4'
   'y, z+3/4, -x+1/4'
   'y, x+1/4, -z+3/4'
   '-y, -x+1/4, z+3/4'
   '-y, -x+1/4, -z+3/4'
   'y, x+1/4, z+3/4'
   'y, -x+1/4, z+3/4'
   '-y, x+1/4, -z+3/4'
   '-y, x+1/4, z+3/4'
   'y, -x+1/4, -z+3/4'
   'x, z+3/4, -y+1/4'
   '-x, -z+3/4, y+1/4'
   '-x, z+3/4, y+1/4'
   'x, -z+3/4, -y+1/4'
   '-x, -z+3/4, -y+1/4'
   'x, z+3/4, y+1/4'
   'x, -z+3/4, y+1/4'
   '-x, z+3/4, -y+1/4'
   'z+1/2, y+1/4, -x+1/4'
   '-z+1/2, -y+1/4, x+1/4'
   'z+1/2, -y+1/4, x+1/4'
   '-z+1/2, y+1/4, -x+1/4'
   '-z+1/2, y+1/4, x+1/4'
   'z+1/2, -y+1/4, -x+1/4'
   '-z+1/2, -y+1/4, -x+1/4'
   'z+1/2, y+1/4, x+1/4'
   'x+1/4, y, z+3/4'
   '-x+1/4, -y, -z+3/4'
   '-x+1/4, -y, z+3/4'
   'x+1/4, y, -z+3/4'
   '-x+1/4, y, -z+3/4'
   'x+1/4, -y, z+3/4'
   'x+1/4, -y, -z+3/4'
   '-x+1/4, y, z+3/4'
   'z+3/4, x, y+1/4'
   '-z+3/4, -x, -y+1/4'
   'z+3/4, -x, -y+1/4'
   '-z+3/4, x, y+1/4'
   '-z+3/4, -x, y+1/4'
   'z+3/4, x, -y+1/4'
   '-z+3/4, x, -y+1/4'
   'z+3/4, -x, y+1/4'
   'y+1/4, z+1/2, x+1/4'
   '-y+1/4, -z+1/2, -x+1/4'
   '-y+1/4, z+1/2, -x+1/4'
   'y+1/4, -z+1/2, x+1/4'
   'y+1/4, -z+1/2, -x+1/4'
   '-y+1/4, z+1/2, x+1/4'
   '-y+1/4, -z+1/2, x+1/4'
   'y+1/4, z+1/2, -x+1/4'
   'y+1/4, x, -z+3/4'
   '-y+1/4, -x, z+3/4'
   '-y+1/4, -x, -z+3/4'
   'y+1/4, x, z+3/4'
   'y+1/4, -x, z+3/4'
   '-y+1/4, x, -z+3/4'
   '-y+1/4, x, z+3/4'
   'y+1/4, -x, -z+3/4'
   'x+1/4, z+1/2, -y+1/4'
   '-x+1/4, -z+1/2, y+1/4'
   '-x+1/4, z+1/2, y+1/4'
   'x+1/4, -z+1/2, -y+1/4'
   '-x+1/4, -z+1/2, -y+1/4'
   'x+1/4, z+1/2, y+1/4'
   'x+1/4, -z+1/2, y+1/4'
   '-x+1/4, z+1/2, -y+1/4'
   'z+3/4, y, -x+1/4'
   '-z+3/4, -y, x+1/4'
   'z+3/4, -y, x+1/4'
   '-z+3/4, y, -x+1/4'
   '-z+3/4, y, x+1/4'
   'z+3/4, -y, -x+1/4'
   '-z+3/4, -y, -x+1/4'
   'z+3/4, y, x+1/4'
   'x+1/4, y+1/4, z+1/2'
   '-x+1/4, -y+1/4, -z+1/2'
   '-x+1/4, -y+1/4, z+1/2'
   'x+1/4, y+1/4, -z+1/2'
   '-x+1/4, y+1/4, -z+1/2'
   'x+1/4, -y+1/4, z+1/2'
   'x+1/4, -y+1/4, -z+1/2'
   '-x+1/4, y+1/4, z+1/2'
   'z+3/4, x+1/4, y'
   '-z+3/4, -x+1/4, -y'
   'z+3/4, -x+1/4, -y'
   '-z+3/4, x+1/4, y'
   '-z+3/4, -x+1/4, y'
   'z+3/4, x+1/4, -y'
   '-z+3/4, x+1/4, -y'
   'z+3/4, -x+1/4, y'
   'y+1/4, z+3/4, x'
   '-y+1/4, -z+3/4, -x'
   '-y+1/4, z+3/4, -x'
   'y+1/4, -z+3/4, x'
   'y+1/4, -z+3/4, -x'
   '-y+1/4, z+3/4, x'
   '-y+1/4, -z+3/4, x'
   'y+1/4, z+3/4, -x'
   'y+1/4, x+1/4, -z+1/2'
   '-y+1/4, -x+1/4, z+1/2'
   '-y+1/4, -x+1/4, -z+1/2'
   'y+1/4, x+1/4, z+1/2'
   'y+1/4, -x+1/4, z+1/2'
   '-y+1/4, x+1/4, -z+1/2'
   '-y+1/4, x+1/4, z+1/2'
   'y+1/4, -x+1/4, -z+1/2'
   'x+1/4, z+3/4, -y'
   '-x+1/4, -z+3/4, y'
   '-x+1/4, z+3/4, y'
   'x+1/4, -z+3/4, -y'
   '-x+1/4, -z+3/4, -y'
   'x+1/4, z+3/4, y'
   'x+1/4, -z+3/4, y'
   '-x+1/4, z+3/4, -y'
   'z+3/4, y+1/4, -x'
   '-z+3/4, -y+1/4, x'
   'z+3/4, -y+1/4, x'
   '-z+3/4, y+1/4, -x'
   '-z+3/4, y+1/4, x'
   'z+3/4, -y+1/4, -x'
   '-z+3/4, -y+1/4, -x'
   'z+3/4, y+1/4, x'
   'x, y+1/2, z'
   '-x, -y+1/2, -z'
   '-x, -y+1/2, z'
   'x, y+1/2, -z'
   '-x, y+1/2, -z'
   'x, -y+1/2, z'
   'x, -y+1/2, -z'
   '-x, y+1/2, z'
   'z, x, y+1/2'
   '-z, -x, -y+1/2'
   'z, -x, -y+1/2'
   '-z, x, y+1/2'
   '-z, -x, y+1/2'
   'z, x, -y+1/2'
   '-z, x, -y+1/2'
   'z, -x, y+1/2'
   'y+1/2, z, x'
   '-y+1/2, -z, -x'
   '-y+1/2, z, -x'
   'y+1/2, -z, x'
   'y+1/2, -z, -x'
   '-y+1/2, z, x'
   '-y+1/2, -z, x'
   'y+1/2, z, -x'
   'y+1/2, x, -z'
   '-y+1/2, -x, z'
   '-y+1/2, -x, -z'
   'y+1/2, x, z'
   'y+1/2, -x, z'
   '-y+1/2, x, -z'
   '-y+1/2, x, z'
   'y+1/2, -x, -z'
   'x, z, -y+1/2'
   '-x, -z, y+1/2'
   '-x, z, y+1/2'
   'x, -z, -y+1/2'
   '-x, -z, -y+1/2'
   'x, z, y+1/2'
   'x, -z, y+1/2'
   '-x, z, -y+1/2'
   'z, y+1/2, -x'
   '-z, -y+1/2, x'
   'z, -y+1/2, x'
   '-z, y+1/2, -x'
   '-z, y+1/2, x'
   'z, -y+1/2, -x'
   '-z, -y+1/2, -x'
   'z, y+1/2, x'
   'x, y+3/4, z+1/4'
   '-x, -y+3/4, -z+1/4'
   '-x, -y+3/4, z+1/4'
   'x, y+3/4, -z+1/4'
   '-x, y+3/4, -z+1/4'
   'x, -y+3/4, z+1/4'
   'x, -y+3/4, -z+1/4'
   '-x, y+3/4, z+1/4'
   'z, x+1/4, y+3/4'
   '-z, -x+1/4, -y+3/4'
   'z, -x+1/4, -y+3/4'
   '-z, x+1/4, y+3/4'
   '-z, -x+1/4, y+3/4'
   'z, x+1/4, -y+3/4'
   '-z, x+1/4, -y+3/4'
   'z, -x+1/4, y+3/4'
   'y+1/2, z+1/4, x+1/4'
   '-y+1/2, -z+1/4, -x+1/4'
   '-y+1/2, z+1/4, -x+1/4'
   'y+1/2, -z+1/4, x+1/4'
   'y+1/2, -z+1/4, -x+1/4'
   '-y+1/2, z+1/4, x+1/4'
   '-y+1/2, -z+1/4, x+1/4'
   'y+1/2, z+1/4, -x+1/4'
   'y+1/2, x+1/4, -z+1/4'
   '-y+1/2, -x+1/4, z+1/4'
   '-y+1/2, -x+1/4, -z+1/4'
   'y+1/2, x+1/4, z+1/4'
   'y+1/2, -x+1/4, z+1/4'
   '-y+1/2, x+1/4, -z+1/4'
   '-y+1/2, x+1/4, z+1/4'
   'y+1/2, -x+1/4, -z+1/4'
   'x, z+1/4, -y+3/4'
   '-x, -z+1/4, y+3/4'
   '-x, z+1/4, y+3/4'
   'x, -z+1/4, -y+3/4'
   '-x, -z+1/4, -y+3/4'
   'x, z+1/4, y+3/4'
   'x, -z+1/4, y+3/4'
   '-x, z+1/4, -y+3/4'
   'z, y+3/4, -x+1/4'
   '-z, -y+3/4, x+1/4'
   'z, -y+3/4, x+1/4'
   '-z, y+3/4, -x+1/4'
   '-z, y+3/4, x+1/4'
   'z, -y+3/4, -x+1/4'
   '-z, -y+3/4, -x+1/4'
   'z, y+3/4, x+1/4'
   'x+1/4, y+1/2, z+1/4'
   '-x+1/4, -y+1/2, -z+1/4'
   '-x+1/4, -y+1/2, z+1/4'
   'x+1/4, y+1/2, -z+1/4'
   '-x+1/4, y+1/2, -z+1/4'
   'x+1/4, -y+1/2, z+1/4'
   'x+1/4, -y+1/2, -z+1/4'
   '-x+1/4, y+1/2, z+1/4'
   'z+1/4, x, y+3/4'
   '-z+1/4, -x, -y+3/4'
   'z+1/4, -x, -y+3/4'
   '-z+1/4, x, y+3/4'
   '-z+1/4, -x, y+3/4'
   'z+1/4, x, -y+3/4'
   '-z+1/4, x, -y+3/4'
   'z+1/4, -x, y+3/4'
   'y+3/4, z, x+1/4'
   '-y+3/4, -z, -x+1/4'
   '-y+3/4, z, -x+1/4'
   'y+3/4, -z, x+1/4'
   'y+3/4, -z, -x+1/4'
   '-y+3/4, z, x+1/4'
   '-y+3/4, -z, x+1/4'
   'y+3/4, z, -x+1/4'
   'y+3/4, x, -z+1/4'
   '-y+3/4, -x, z+1/4'
   '-y+3/4, -x, -z+1/4'
   'y+3/4, x, z+1/4'
   'y+3/4, -x, z+1/4'
   '-y+3/4, x, -z+1/4'
   '-y+3/4, x, z+1/4'
   'y+3/4, -x, -z+1/4'
   'x+1/4, z, -y+3/4'
   '-x+1/4, -z, y+3/4'
   '-x+1/4, z, y+3/4'
   'x+1/4, -z, -y+3/4'
   '-x+1/4, -z, -y+3/4'
   'x+1/4, z, y+3/4'
   'x+1/4, -z, y+3/4'
   '-x+1/4, z, -y+3/4'
   'z+1/4, y+1/2, -x+1/4'
   '-z+1/4, -y+1/2, x+1/4'
   'z+1/4, -y+1/2, x+1/4'
   '-z+1/4, y+1/2, -x+1/4'
   '-z+1/4, y+1/2, x+1/4'
   'z+1/4, -y+1/2, -x+1/4'
   '-z+1/4, -y+1/2, -x+1/4'
   'z+1/4, y+1/2, x+1/4'
   'x+1/4, y+3/4, z'
   '-x+1/4, -y+3/4, -z'
   '-x+1/4, -y+3/4, z'
   'x+1/4, y+3/4, -z'
   '-x+1/4, y+3/4, -z'
   'x+1/4, -y+3/4, z'
   'x+1/4, -y+3/4, -z'
   '-x+1/4, y+3/4, z'
   'z+1/4, x+1/4, y+1/2'
   '-z+1/4, -x+1/4, -y+1/2'
   'z+1/4, -x+1/4, -y+1/2'
   '-z+1/4, x+1/4, y+1/2'
   '-z+1/4, -x+1/4, y+1/2'
   'z+1/4, x+1/4, -y+1/2'
   '-z+1/4, x+1/4, -y+1/2'
   'z+1/4, -x+1/4, y+1/2'
   'y+3/4, z+1/4, x'
   '-y+3/4, -z+1/4, -x'
   '-y+3/4, z+1/4, -x'
   'y+3/4, -z+1/4, x'
   'y+3/4, -z+1/4, -x'
   '-y+3/4, z+1/4, x'
   '-y+3/4, -z+1/4, x'
   'y+3/4, z+1/4, -x'
   'y+3/4, x+1/4, -z'
   '-y+3/4, -x+1/4, z'
   '-y+3/4, -x+1/4, -z'
   'y+3/4, x+1/4, z'
   'y+3/4, -x+1/4, z'
   '-y+3/4, x+1/4, -z'
   '-y+3/4, x+1/4, z'
   'y+3/4, -x+1/4, -z'
   'x+1/4, z+1/4, -y+1/2'
   '-x+1/4, -z+1/4, y+1/2'
   '-x+1/4, z+1/4, y+1/2'
   'x+1/4, -z+1/4, -y+1/2'
   '-x+1/4, -z+1/4, -y+1/2'
   'x+1/4, z+1/4, y+1/2'
   'x+1/4, -z+1/4, y+1/2'
   '-x+1/4, z+1/4, -y+1/2'
   'z+1/4, y+3/4, -x'
   '-z+1/4, -y+3/4, x'
   'z+1/4, -y+3/4, x'
   '-z+1/4, y+3/4, -x'
   '-z+1/4, y+3/4, x'
   'z+1/4, -y+3/4, -x'
   '-z+1/4, -y+3/4, -x'
   'z+1/4, y+3/4, x'
   'x, y+1/2, z+1/2'
   '-x, -y+1/2, -z+1/2'
   '-x, -y+1/2, z+1/2'
   'x, y+1/2, -z+1/2'
   '-x, y+1/2, -z+1/2'
   'x, -y+1/2, z+1/2'
   'x, -y+1/2, -z+1/2'
   '-x, y+1/2, z+1/2'
   'z+1/2, x, y+1/2'
   '-z+1/2, -x, -y+1/2'
   'z+1/2, -x, -y+1/2'
   '-z+1/2, x, y+1/2'
   '-z+1/2, -x, y+1/2'
   'z+1/2, x, -y+1/2'
   '-z+1/2, x, -y+1/2'
   'z+1/2, -x, y+1/2'
   'y+1/2, z+1/2, x'
   '-y+1/2, -z+1/2, -x'
   '-y+1/2, z+1/2, -x'
   'y+1/2, -z+1/2, x'
   'y+1/2, -z+1/2, -x'
   '-y+1/2, z+1/2, x'
   '-y+1/2, -z+1/2, x'
   'y+1/2, z+1/2, -x'
   'y+1/2, x, -z+1/2'
   '-y+1/2, -x, z+1/2'
   '-y+1/2, -x, -z+1/2'
   'y+1/2, x, z+1/2'
   'y+1/2, -x, z+1/2'
   '-y+1/2, x, -z+1/2'
   '-y+1/2, x, z+1/2'
   'y+1/2, -x, -z+1/2'
   'x, z+1/2, -y+1/2'
   '-x, -z+1/2, y+1/2'
   '-x, z+1/2, y+1/2'
   'x, -z+1/2, -y+1/2'
   '-x, -z+1/2, -y+1/2'
   'x, z+1/2, y+1/2'
   'x, -z+1/2, y+1/2'
   '-x, z+1/2, -y+1/2'
   'z+1/2, y+1/2, -x'
   '-z+1/2, -y+1/2, x'
   'z+1/2, -y+1/2, x'
   '-z+1/2, y+1/2, -x'
   '-z+1/2, y+1/2, x'
   'z+1/2, -y+1/2, -x'
   '-z+1/2, -y+1/2, -x'
   'z+1/2, y+1/2, x'
   'x, y+3/4, z+3/4'
   '-x, -y+3/4, -z+3/4'
   '-x, -y+3/4, z+3/4'
   'x, y+3/4, -z+3/4'
   '-x, y+3/4, -z+3/4'
   'x, -y+3/4, z+3/4'
   'x, -y+3/4, -z+3/4'
   '-x, y+3/4, z+3/4'
   'z+1/2, x+1/4, y+3/4'
   '-z+1/2, -x+1/4, -y+3/4'
   'z+1/2, -x+1/4, -y+3/4'
   '-z+1/2, x+1/4, y+3/4'
   '-z+1/2, -x+1/4, y+3/4'
   'z+1/2, x+1/4, -y+3/4'
   '-z+1/2, x+1/4, -y+3/4'
   'z+1/2, -x+1/4, y+3/4'
   'y+1/2, z+3/4, x+1/4'
   '-y+1/2, -z+3/4, -x+1/4'
   '-y+1/2, z+3/4, -x+1/4'
   'y+1/2, -z+3/4, x+1/4'
   'y+1/2, -z+3/4, -x+1/4'
   '-y+1/2, z+3/4, x+1/4'
   '-y+1/2, -z+3/4, x+1/4'
   'y+1/2, z+3/4, -x+1/4'
   'y+1/2, x+1/4, -z+3/4'
   '-y+1/2, -x+1/4, z+3/4'
   '-y+1/2, -x+1/4, -z+3/4'
   'y+1/2, x+1/4, z+3/4'
   'y+1/2, -x+1/4, z+3/4'
   '-y+1/2, x+1/4, -z+3/4'
   '-y+1/2, x+1/4, z+3/4'
   'y+1/2, -x+1/4, -z+3/4'
   'x, z+3/4, -y+3/4'
   '-x, -z+3/4, y+3/4'
   '-x, z+3/4, y+3/4'
   'x, -z+3/4, -y+3/4'
   '-x, -z+3/4, -y+3/4'
   'x, z+3/4, y+3/4'
   'x, -z+3/4, y+3/4'
   '-x, z+3/4, -y+3/4'
   'z+1/2, y+3/4, -x+1/4'
   '-z+1/2, -y+3/4, x+1/4'
   'z+1/2, -y+3/4, x+1/4'
   '-z+1/2, y+3/4, -x+1/4'
   '-z+1/2, y+3/4, x+1/4'
   'z+1/2, -y+3/4, -x+1/4'
   '-z+1/2, -y+3/4, -x+1/4'
   'z+1/2, y+3/4, x+1/4'
   'x+1/4, y+1/2, z+3/4'
   '-x+1/4, -y+1/2, -z+3/4'
   '-x+1/4, -y+1/2, z+3/4'
   'x+1/4, y+1/2, -z+3/4'
   '-x+1/4, y+1/2, -z+3/4'
   'x+1/4, -y+1/2, z+3/4'
   'x+1/4, -y+1/2, -z+3/4'
   '-x+1/4, y+1/2, z+3/4'
   'z+3/4, x, y+3/4'
   '-z+3/4, -x, -y+3/4'
   'z+3/4, -x, -y+3/4'
   '-z+3/4, x, y+3/4'
   '-z+3/4, -x, y+3/4'
   'z+3/4, x, -y+3/4'
   '-z+3/4, x, -y+3/4'
   'z+3/4, -x, y+3/4'
   'y+3/4, z+1/2, x+1/4'
   '-y+3/4, -z+1/2, -x+1/4'
   '-y+3/4, z+1/2, -x+1/4'
   'y+3/4, -z+1/2, x+1/4'
   'y+3/4, -z+1/2, -x+1/4'
   '-y+3/4, z+1/2, x+1/4'
   '-y+3/4, -z+1/2, x+1/4'
   'y+3/4, z+1/2, -x+1/4'
   'y+3/4, x, -z+3/4'
   '-y+3/4, -x, z+3/4'
   '-y+3/4, -x, -z+3/4'
   'y+3/4, x, z+3/4'
   'y+3/4, -x, z+3/4'
   '-y+3/4, x, -z+3/4'
   '-y+3/4, x, z+3/4'
   'y+3/4, -x, -z+3/4'
   'x+1/4, z+1/2, -y+3/4'
   '-x+1/4, -z+1/2, y+3/4'
   '-x+1/4, z+1/2, y+3/4'
   'x+1/4, -z+1/2, -y+3/4'
   '-x+1/4, -z+1/2, -y+3/4'
   'x+1/4, z+1/2, y+3/4'
   'x+1/4, -z+1/2, y+3/4'
   '-x+1/4, z+1/2, -y+3/4'
   'z+3/4, y+1/2, -x+1/4'
   '-z+3/4, -y+1/2, x+1/4'
   'z+3/4, -y+1/2, x+1/4'
   '-z+3/4, y+1/2, -x+1/4'
   '-z+3/4, y+1/2, x+1/4'
   'z+3/4, -y+1/2, -x+1/4'
   '-z+3/4, -y+1/2, -x+1/4'
   'z+3/4, y+1/2, x+1/4'
   'x+1/4, y+3/4, z+1/2'
   '-x+1/4, -y+3/4, -z+1/2'
   '-x+1/4, -y+3/4, z+1/2'
   'x+1/4, y+3/4, -z+1/2'
   '-x+1/4, y+3/4, -z+1/2'
   'x+1/4, -y+3/4, z+1/2'
   'x+1/4, -y+3/4, -z+1/2'
   '-x+1/4, y+3/4, z+1/2'
   'z+3/4, x+1/4, y+1/2'
   '-z+3/4, -x+1/4, -y+1/2'
   'z+3/4, -x+1/4, -y+1/2'
   '-z+3/4, x+1/4, y+1/2'
   '-z+3/4, -x+1/4, y+1/2'
   'z+3/4, x+1/4, -y+1/2'
   '-z+3/4, x+1/4, -y+1/2'
   'z+3/4, -x+1/4, y+1/2'
   'y+3/4, z+3/4, x'
   '-y+3/4, -z+3/4, -x'
   '-y+3/4, z+3/4, -x'
   'y+3/4, -z+3/4, x'
   'y+3/4, -z+3/4, -x'
   '-y+3/4, z+3/4, x'
   '-y+3/4, -z+3/4, x'
   'y+3/4, z+3/4, -x'
   'y+3/4, x+1/4, -z+1/2'
   '-y+3/4, -x+1/4, z+1/2'
   '-y+3/4, -x+1/4, -z+1/2'
   'y+3/4, x+1/4, z+1/2'
   'y+3/4, -x+1/4, z+1/2'
   '-y+3/4, x+1/4, -z+1/2'
   '-y+3/4, x+1/4, z+1/2'
   'y+3/4, -x+1/4, -z+1/2'
   'x+1/4, z+3/4, -y+1/2'
   '-x+1/4, -z+3/4, y+1/2'
   '-x+1/4, z+3/4, y+1/2'
   'x+1/4, -z+3/4, -y+1/2'
   '-x+1/4, -z+3/4, -y+1/2'
   'x+1/4, z+3/4, y+1/2'
   'x+1/4, -z+3/4, y+1/2'
   '-x+1/4, z+3/4, -y+1/2'
   'z+3/4, y+3/4, -x'
   '-z+3/4, -y+3/4, x'
   'z+3/4, -y+3/4, x'
   '-z+3/4, y+3/4, -x'
   '-z+3/4, y+3/4, x'
   'z+3/4, -y+3/4, -x'
   '-z+3/4, -y+3/4, -x'
   'z+3/4, y+3/4, x'
   'x+1/2, y, z'
   '-x+1/2, -y, -z'
   '-x+1/2, -y, z'
   'x+1/2, y, -z'
   '-x+1/2, y, -z'
   'x+1/2, -y, z'
   'x+1/2, -y, -z'
   '-x+1/2, y, z'
   'z, x+1/2, y'
   '-z, -x+1/2, -y'
   'z, -x+1/2, -y'
   '-z, x+1/2, y'
   '-z, -x+1/2, y'
   'z, x+1/2, -y'
   '-z, x+1/2, -y'
   'z, -x+1/2, y'
   'y, z, x+1/2'
   '-y, -z, -x+1/2'
   '-y, z, -x+1/2'
   'y, -z, x+1/2'
   'y, -z, -x+1/2'
   '-y, z, x+1/2'
   '-y, -z, x+1/2'
   'y, z, -x+1/2'
   'y, x+1/2, -z'
   '-y, -x+1/2, z'
   '-y, -x+1/2, -z'
   'y, x+1/2, z'
   'y, -x+1/2, z'
   '-y, x+1/2, -z'
   '-y, x+1/2, z'
   'y, -x+1/2, -z'
   'x+1/2, z, -y'
   '-x+1/2, -z, y'
   '-x+1/2, z, y'
   'x+1/2, -z, -y'
   '-x+1/2, -z, -y'
   'x+1/2, z, y'
   'x+1/2, -z, y'
   '-x+1/2, z, -y'
   'z, y, -x+1/2'
   '-z, -y, x+1/2'
   'z, -y, x+1/2'
   '-z, y, -x+1/2'
   '-z, y, x+1/2'
   'z, -y, -x+1/2'
   '-z, -y, -x+1/2'
   'z, y, x+1/2'
   'x+1/2, y+1/4, z+1/4'
   '-x+1/2, -y+1/4, -z+1/4'
   '-x+1/2, -y+1/4, z+1/4'
   'x+1/2, y+1/4, -z+1/4'
   '-x+1/2, y+1/4, -z+1/4'
   'x+1/2, -y+1/4, z+1/4'
   'x+1/2, -y+1/4, -z+1/4'
   '-x+1/2, y+1/4, z+1/4'
   'z, x+3/4, y+1/4'
   '-z, -x+3/4, -y+1/4'
   'z, -x+3/4, -y+1/4'
   '-z, x+3/4, y+1/4'
   '-z, -x+3/4, y+1/4'
   'z, x+3/4, -y+1/4'
   '-z, x+3/4, -y+1/4'
   'z, -x+3/4, y+1/4'
   'y, z+1/4, x+3/4'
   '-y, -z+1/4, -x+3/4'
   '-y, z+1/4, -x+3/4'
   'y, -z+1/4, x+3/4'
   'y, -z+1/4, -x+3/4'
   '-y, z+1/4, x+3/4'
   '-y, -z+1/4, x+3/4'
   'y, z+1/4, -x+3/4'
   'y, x+3/4, -z+1/4'
   '-y, -x+3/4, z+1/4'
   '-y, -x+3/4, -z+1/4'
   'y, x+3/4, z+1/4'
   'y, -x+3/4, z+1/4'
   '-y, x+3/4, -z+1/4'
   '-y, x+3/4, z+1/4'
   'y, -x+3/4, -z+1/4'
   'x+1/2, z+1/4, -y+1/4'
   '-x+1/2, -z+1/4, y+1/4'
   '-x+1/2, z+1/4, y+1/4'
   'x+1/2, -z+1/4, -y+1/4'
   '-x+1/2, -z+1/4, -y+1/4'
   'x+1/2, z+1/4, y+1/4'
   'x+1/2, -z+1/4, y+1/4'
   '-x+1/2, z+1/4, -y+1/4'
   'z, y+1/4, -x+3/4'
   '-z, -y+1/4, x+3/4'
   'z, -y+1/4, x+3/4'
   '-z, y+1/4, -x+3/4'
   '-z, y+1/4, x+3/4'
   'z, -y+1/4, -x+3/4'
   '-z, -y+1/4, -x+3/4'
   'z, y+1/4, x+3/4'
   'x+3/4, y, z+1/4'
   '-x+3/4, -y, -z+1/4'
   '-x+3/4, -y, z+1/4'
   'x+3/4, y, -z+1/4'
   '-x+3/4, y, -z+1/4'
   'x+3/4, -y, z+1/4'
   'x+3/4, -y, -z+1/4'
   '-x+3/4, y, z+1/4'
   'z+1/4, x+1/2, y+1/4'
   '-z+1/4, -x+1/2, -y+1/4'
   'z+1/4, -x+1/2, -y+1/4'
   '-z+1/4, x+1/2, y+1/4'
   '-z+1/4, -x+1/2, y+1/4'
   'z+1/4, x+1/2, -y+1/4'
   '-z+1/4, x+1/2, -y+1/4'
   'z+1/4, -x+1/2, y+1/4'
   'y+1/4, z, x+3/4'
   '-y+1/4, -z, -x+3/4'
   '-y+1/4, z, -x+3/4'
   'y+1/4, -z, x+3/4'
   'y+1/4, -z, -x+3/4'
   '-y+1/4, z, x+3/4'
   '-y+1/4, -z, x+3/4'
   'y+1/4, z, -x+3/4'
   'y+1/4, x+1/2, -z+1/4'
   '-y+1/4, -x+1/2, z+1/4'
   '-y+1/4, -x+1/2, -z+1/4'
   'y+1/4, x+1/2, z+1/4'
   'y+1/4, -x+1/2, z+1/4'
   '-y+1/4, x+1/2, -z+1/4'
   '-y+1/4, x+1/2, z+1/4'
   'y+1/4, -x+1/2, -z+1/4'
   'x+3/4, z, -y+1/4'
   '-x+3/4, -z, y+1/4'
   '-x+3/4, z, y+1/4'
   'x+3/4, -z, -y+1/4'
   '-x+3/4, -z, -y+1/4'
   'x+3/4, z, y+1/4'
   'x+3/4, -z, y+1/4'
   '-x+3/4, z, -y+1/4'
   'z+1/4, y, -x+3/4'
   '-z+1/4, -y, x+3/4'
   'z+1/4, -y, x+3/4'
   '-z+1/4, y, -x+3/4'
   '-z+1/4, y, x+3/4'
   'z+1/4, -y, -x+3/4'
   '-z+1/4, -y, -x+3/4'
   'z+1/4, y, x+3/4'
   'x+3/4, y+1/4, z'
   '-x+3/4, -y+1/4, -z'
   '-x+3/4, -y+1/4, z'
   'x+3/4, y+1/4, -z'
   '-x+3/4, y+1/4, -z'
   'x+3/4, -y+1/4, z'
   'x+3/4, -y+1/4, -z'
   '-x+3/4, y+1/4, z'
   'z+1/4, x+3/4, y'
   '-z+1/4, -x+3/4, -y'
   'z+1/4, -x+3/4, -y'
   '-z+1/4, x+3/4, y'
   '-z+1/4, -x+3/4, y'
   'z+1/4, x+3/4, -y'
   '-z+1/4, x+3/4, -y'
   'z+1/4, -x+3/4, y'
   'y+1/4, z+1/4, x+1/2'
   '-y+1/4, -z+1/4, -x+1/2'
   '-y+1/4, z+1/4, -x+1/2'
   'y+1/4, -z+1/4, x+1/2'
   'y+1/4, -z+1/4, -x+1/2'
   '-y+1/4, z+1/4, x+1/2'
   '-y+1/4, -z+1/4, x+1/2'
   'y+1/4, z+1/4, -x+1/2'
   'y+1/4, x+3/4, -z'
   '-y+1/4, -x+3/4, z'
   '-y+1/4, -x+3/4, -z'
   'y+1/4, x+3/4, z'
   'y+1/4, -x+3/4, z'
   '-y+1/4, x+3/4, -z'
   '-y+1/4, x+3/4, z'
   'y+1/4, -x+3/4, -z'
   'x+3/4, z+1/4, -y'
   '-x+3/4, -z+1/4, y'
   '-x+3/4, z+1/4, y'
   'x+3/4, -z+1/4, -y'
   '-x+3/4, -z+1/4, -y'
   'x+3/4, z+1/4, y'
   'x+3/4, -z+1/4, y'
   '-x+3/4, z+1/4, -y'
   'z+1/4, y+1/4, -x+1/2'
   '-z+1/4, -y+1/4, x+1/2'
   'z+1/4, -y+1/4, x+1/2'
   '-z+1/4, y+1/4, -x+1/2'
   '-z+1/4, y+1/4, x+1/2'
   'z+1/4, -y+1/4, -x+1/2'
   '-z+1/4, -y+1/4, -x+1/2'
   'z+1/4, y+1/4, x+1/2'
   'x+1/2, y, z+1/2'
   '-x+1/2, -y, -z+1/2'
   '-x+1/2, -y, z+1/2'
   'x+1/2, y, -z+1/2'
   '-x+1/2, y, -z+1/2'
   'x+1/2, -y, z+1/2'
   'x+1/2, -y, -z+1/2'
   '-x+1/2, y, z+1/2'
   'z+1/2, x+1/2, y'
   '-z+1/2, -x+1/2, -y'
   'z+1/2, -x+1/2, -y'
   '-z+1/2, x+1/2, y'
   '-z+1/2, -x+1/2, y'
   'z+1/2, x+1/2, -y'
   '-z+1/2, x+1/2, -y'
   'z+1/2, -x+1/2, y'
   'y, z+1/2, x+1/2'
   '-y, -z+1/2, -x+1/2'
   '-y, z+1/2, -x+1/2'
   'y, -z+1/2, x+1/2'
   'y, -z+1/2, -x+1/2'
   '-y, z+1/2, x+1/2'
   '-y, -z+1/2, x+1/2'
   'y, z+1/2, -x+1/2'
   'y, x+1/2, -z+1/2'
   '-y, -x+1/2, z+1/2'
   '-y, -x+1/2, -z+1/2'
   'y, x+1/2, z+1/2'
   'y, -x+1/2, z+1/2'
   '-y, x+1/2, -z+1/2'
   '-y, x+1/2, z+1/2'
   'y, -x+1/2, -z+1/2'
   'x+1/2, z+1/2, -y'
   '-x+1/2, -z+1/2, y'
   '-x+1/2, z+1/2, y'
   'x+1/2, -z+1/2, -y'
   '-x+1/2, -z+1/2, -y'
   'x+1/2, z+1/2, y'
   'x+1/2, -z+1/2, y'
   '-x+1/2, z+1/2, -y'
   'z+1/2, y, -x+1/2'
   '-z+1/2, -y, x+1/2'
   'z+1/2, -y, x+1/2'
   '-z+1/2, y, -x+1/2'
   '-z+1/2, y, x+1/2'
   'z+1/2, -y, -x+1/2'
   '-z+1/2, -y, -x+1/2'
   'z+1/2, y, x+1/2'
   'x+1/2, y+1/4, z+3/4'
   '-x+1/2, -y+1/4, -z+3/4'
   '-x+1/2, -y+1/4, z+3/4'
   'x+1/2, y+1/4, -z+3/4'
   '-x+1/2, y+1/4, -z+3/4'
   'x+1/2, -y+1/4, z+3/4'
   'x+1/2, -y+1/4, -z+3/4'
   '-x+1/2, y+1/4, z+3/4'
   'z+1/2, x+3/4, y+1/4'
   '-z+1/2, -x+3/4, -y+1/4'
   'z+1/2, -x+3/4, -y+1/4'
   '-z+1/2, x+3/4, y+1/4'
   '-z+1/2, -x+3/4, y+1/4'
   'z+1/2, x+3/4, -y+1/4'
   '-z+1/2, x+3/4, -y+1/4'
   'z+1/2, -x+3/4, y+1/4'
   'y, z+3/4, x+3/4'
   '-y, -z+3/4, -x+3/4'
   '-y, z+3/4, -x+3/4'
   'y, -z+3/4, x+3/4'
   'y, -z+3/4, -x+3/4'
   '-y, z+3/4, x+3/4'
   '-y, -z+3/4, x+3/4'
   'y, z+3/4, -x+3/4'
   'y, x+3/4, -z+3/4'
   '-y, -x+3/4, z+3/4'
   '-y, -x+3/4, -z+3/4'
   'y, x+3/4, z+3/4'
   'y, -x+3/4, z+3/4'
   '-y, x+3/4, -z+3/4'
   '-y, x+3/4, z+3/4'
   'y, -x+3/4, -z+3/4'
   'x+1/2, z+3/4, -y+1/4'
   '-x+1/2, -z+3/4, y+1/4'
   '-x+1/2, z+3/4, y+1/4'
   'x+1/2, -z+3/4, -y+1/4'
   '-x+1/2, -z+3/4, -y+1/4'
   'x+1/2, z+3/4, y+1/4'
   'x+1/2, -z+3/4, y+1/4'
   '-x+1/2, z+3/4, -y+1/4'
   'z+1/2, y+1/4, -x+3/4'
   '-z+1/2, -y+1/4, x+3/4'
   'z+1/2, -y+1/4, x+3/4'
   '-z+1/2, y+1/4, -x+3/4'
   '-z+1/2, y+1/4, x+3/4'
   'z+1/2, -y+1/4, -x+3/4'
   '-z+1/2, -y+1/4, -x+3/4'
   'z+1/2, y+1/4, x+3/4'
   'x+3/4, y, z+3/4'
   '-x+3/4, -y, -z+3/4'
   '-x+3/4, -y, z+3/4'
   'x+3/4, y, -z+3/4'
   '-x+3/4, y, -z+3/4'
   'x+3/4, -y, z+3/4'
   'x+3/4, -y, -z+3/4'
   '-x+3/4, y, z+3/4'
   'z+3/4, x+1/2, y+1/4'
   '-z+3/4, -x+1/2, -y+1/4'
   'z+3/4, -x+1/2, -y+1/4'
   '-z+3/4, x+1/2, y+1/4'
   '-z+3/4, -x+1/2, y+1/4'
   'z+3/4, x+1/2, -y+1/4'
   '-z+3/4, x+1/2, -y+1/4'
   'z+3/4, -x+1/2, y+1/4'
   'y+1/4, z+1/2, x+3/4'
   '-y+1/4, -z+1/2, -x+3/4'
   '-y+1/4, z+1/2, -x+3/4'
   'y+1/4, -z+1/2, x+3/4'
   'y+1/4, -z+1/2, -x+3/4'
   '-y+1/4, z+1/2, x+3/4'
   '-y+1/4, -z+1/2, x+3/4'
   'y+1/4, z+1/2, -x+3/4'
   'y+1/4, x+1/2, -z+3/4'
   '-y+1/4, -x+1/2, z+3/4'
   '-y+1/4, -x+1/2, -z+3/4'
   'y+1/4, x+1/2, z+3/4'
   'y+1/4, -x+1/2, z+3/4'
   '-y+1/4, x+1/2, -z+3/4'
   '-y+1/4, x+1/2, z+3/4'
   'y+1/4, -x+1/2, -z+3/4'
   'x+3/4, z+1/2, -y+1/4'
   '-x+3/4, -z+1/2, y+1/4'
   '-x+3/4, z+1/2, y+1/4'
   'x+3/4, -z+1/2, -y+1/4'
   '-x+3/4, -z+1/2, -y+1/4'
   'x+3/4, z+1/2, y+1/4'
   'x+3/4, -z+1/2, y+1/4'
   '-x+3/4, z+1/2, -y+1/4'
   'z+3/4, y, -x+3/4'
   '-z+3/4, -y, x+3/4'
   'z+3/4, -y, x+3/4'
   '-z+3/4, y, -x+3/4'
   '-z+3/4, y, x+3/4'
   'z+3/4, -y, -x+3/4'
   '-z+3/4, -y, -x+3/4'
   'z+3/4, y, x+3/4'
   'x+3/4, y+1/4, z+1/2'
   '-x+3/4, -y+1/4, -z+1/2'
   '-x+3/4, -y+1/4, z+1/2'
   'x+3/4, y+1/4, -z+1/2'
   '-x+3/4, y+1/4, -z+1/2'
   'x+3/4, -y+1/4, z+1/2'
   'x+3/4, -y+1/4, -z+1/2'
   '-x+3/4, y+1/4, z+1/2'
   'z+3/4, x+3/4, y'
   '-z+3/4, -x+3/4, -y'
   'z+3/4, -x+3/4, -y'
   '-z+3/4, x+3/4, y'
   '-z+3/4, -x+3/4, y'
   'z+3/4, x+3/4, -y'
   '-z+3/4, x+3/4, -y'
   'z+3/4, -x+3/4, y'
   'y+1/4, z+3/4, x+1/2'
   '-y+1/4, -z+3/4, -x+1/2'
   '-y+1/4, z+3/4, -x+1/2'
   'y+1/4, -z+3/4, x+1/2'
   'y+1/4, -z+3/4, -x+1/2'
   '-y+1/4, z+3/4, x+1/2'
   '-y+1/4, -z+3/4, x+1/2'
   'y+1/4, z+3/4, -x+1/2'
   'y+1/4, x+3/4, -z+1/2'
   '-y+1/4, -x+3/4, z+1/2'
   '-y+1/4, -x+3/4, -z+1/2'
   'y+1/4, x+3/4, z+1/2'
   'y+1/4, -x+3/4, z+1/2'
   '-y+1/4, x+3/4, -z+1/2'
   '-y+1/4, x+3/4, z+1/2'
   'y+1/4, -x+3/4, -z+1/2'
   'x+3/4, z+3/4, -y'
   '-x+3/4, -z+3/4, y'
   '-x+3/4, z+3/4, y'
   'x+3/4, -z+3/4, -y'
   '-x+3/4, -z+3/4, -y'
   'x+3/4, z+3/4, y'
   'x+3/4, -z+3/4, y'
   '-x+3/4, z+3/4, -y'
   'z+3/4, y+1/4, -x+1/2'
   '-z+3/4, -y+1/4, x+1/2'
   'z+3/4, -y+1/4, x+1/2'
   '-z+3/4, y+1/4, -x+1/2'
   '-z+3/4, y+1/4, x+1/2'
   'z+3/4, -y+1/4, -x+1/2'
   '-z+3/4, -y+1/4, -x+1/2'
   'z+3/4, y+1/4, x+1/2'
   'x+1/2, y+1/2, z'
   '-x+1/2, -y+1/2, -z'
   '-x+1/2, -y+1/2, z'
   'x+1/2, y+1/2, -z'
   '-x+1/2, y+1/2, -z'
   'x+1/2, -y+1/2, z'
   'x+1/2, -y+1/2, -z'
   '-x+1/2, y+1/2, z'
   'z, x+1/2, y+1/2'
   '-z, -x+1/2, -y+1/2'
   'z, -x+1/2, -y+1/2'
   '-z, x+1/2, y+1/2'
   '-z, -x+1/2, y+1/2'
   'z, x+1/2, -y+1/2'
   '-z, x+1/2, -y+1/2'
   'z, -x+1/2, y+1/2'
   'y+1/2, z, x+1/2'
   '-y+1/2, -z, -x+1/2'
   '-y+1/2, z, -x+1/2'
   'y+1/2, -z, x+1/2'
   'y+1/2, -z, -x+1/2'
   '-y+1/2, z, x+1/2'
   '-y+1/2, -z, x+1/2'
   'y+1/2, z, -x+1/2'
   'y+1/2, x+1/2, -z'
   '-y+1/2, -x+1/2, z'
   '-y+1/2, -x+1/2, -z'
   'y+1/2, x+1/2, z'
   'y+1/2, -x+1/2, z'
   '-y+1/2, x+1/2, -z'
   '-y+1/2, x+1/2, z'
   'y+1/2, -x+1/2, -z'
   'x+1/2, z, -y+1/2'
   '-x+1/2, -z, y+1/2'
   '-x+1/2, z, y+1/2'
   'x+1/2, -z, -y+1/2'
   '-x+1/2, -z, -y+1/2'
   'x+1/2, z, y+1/2'
   'x+1/2, -z, y+1/2'
   '-x+1/2, z, -y+1/2'
   'z, y+1/2, -x+1/2'
   '-z, -y+1/2, x+1/2'
   'z, -y+1/2, x+1/2'
   '-z, y+1/2, -x+1/2'
   '-z, y+1/2, x+1/2'
   'z, -y+1/2, -x+1/2'
   '-z, -y+1/2, -x+1/2'
   'z, y+1/2, x+1/2'
   'x+1/2, y+3/4, z+1/4'
   '-x+1/2, -y+3/4, -z+1/4'
   '-x+1/2, -y+3/4, z+1/4'
   'x+1/2, y+3/4, -z+1/4'
   '-x+1/2, y+3/4, -z+1/4'
   'x+1/2, -y+3/4, z+1/4'
   'x+1/2, -y+3/4, -z+1/4'
   '-x+1/2, y+3/4, z+1/4'
   'z, x+3/4, y+3/4'
   '-z, -x+3/4, -y+3/4'
   'z, -x+3/4, -y+3/4'
   '-z, x+3/4, y+3/4'
   '-z, -x+3/4, y+3/4'
   'z, x+3/4, -y+3/4'
   '-z, x+3/4, -y+3/4'
   'z, -x+3/4, y+3/4'
   'y+1/2, z+1/4, x+3/4'
   '-y+1/2, -z+1/4, -x+3/4'
   '-y+1/2, z+1/4, -x+3/4'
   'y+1/2, -z+1/4, x+3/4'
   'y+1/2, -z+1/4, -x+3/4'
   '-y+1/2, z+1/4, x+3/4'
   '-y+1/2, -z+1/4, x+3/4'
   'y+1/2, z+1/4, -x+3/4'
   'y+1/2, x+3/4, -z+1/4'
   '-y+1/2, -x+3/4, z+1/4'
   '-y+1/2, -x+3/4, -z+1/4'
   'y+1/2, x+3/4, z+1/4'
   'y+1/2, -x+3/4, z+1/4'
   '-y+1/2, x+3/4, -z+1/4'
   '-y+1/2, x+3/4, z+1/4'
   'y+1/2, -x+3/4, -z+1/4'
   'x+1/2, z+1/4, -y+3/4'
   '-x+1/2, -z+1/4, y+3/4'
   '-x+1/2, z+1/4, y+3/4'
   'x+1/2, -z+1/4, -y+3/4'
   '-x+1/2, -z+1/4, -y+3/4'
   'x+1/2, z+1/4, y+3/4'
   'x+1/2, -z+1/4, y+3/4'
   '-x+1/2, z+1/4, -y+3/4'
   'z, y+3/4, -x+3/4'
   '-z, -y+3/4, x+3/4'
   'z, -y+3/4, x+3/4'
   '-z, y+3/4, -x+3/4'
   '-z, y+3/4, x+3/4'
   'z, -y+3/4, -x+3/4'
   '-z, -y+3/4, -x+3/4'
   'z, y+3/4, x+3/4'
   'x+3/4, y+1/2, z+1/4'
   '-x+3/4, -y+1/2, -z+1/4'
   '-x+3/4, -y+1/2, z+1/4'
   'x+3/4, y+1/2, -z+1/4'
   '-x+3/4, y+1/2, -z+1/4'
   'x+3/4, -y+1/2, z+1/4'
   'x+3/4, -y+1/2, -z+1/4'
   '-x+3/4, y+1/2, z+1/4'
   'z+1/4, x+1/2, y+3/4'
   '-z+1/4, -x+1/2, -y+3/4'
   'z+1/4, -x+1/2, -y+3/4'
   '-z+1/4, x+1/2, y+3/4'
   '-z+1/4, -x+1/2, y+3/4'
   'z+1/4, x+1/2, -y+3/4'
   '-z+1/4, x+1/2, -y+3/4'
   'z+1/4, -x+1/2, y+3/4'
   'y+3/4, z, x+3/4'
   '-y+3/4, -z, -x+3/4'
   '-y+3/4, z, -x+3/4'
   'y+3/4, -z, x+3/4'
   'y+3/4, -z, -x+3/4'
   '-y+3/4, z, x+3/4'
   '-y+3/4, -z, x+3/4'
   'y+3/4, z, -x+3/4'
   'y+3/4, x+1/2, -z+1/4'
   '-y+3/4, -x+1/2, z+1/4'
   '-y+3/4, -x+1/2, -z+1/4'
   'y+3/4, x+1/2, z+1/4'
   'y+3/4, -x+1/2, z+1/4'
   '-y+3/4, x+1/2, -z+1/4'
   '-y+3/4, x+1/2, z+1/4'
   'y+3/4, -x+1/2, -z+1/4'
   'x+3/4, z, -y+3/4'
   '-x+3/4, -z, y+3/4'
   '-x+3/4, z, y+3/4'
   'x+3/4, -z, -y+3/4'
   '-x+3/4, -z, -y+3/4'
   'x+3/4, z, y+3/4'
   'x+3/4, -z, y+3/4'
   '-x+3/4, z, -y+3/4'
   'z+1/4, y+1/2, -x+3/4'
   '-z+1/4, -y+1/2, x+3/4'
   'z+1/4, -y+1/2, x+3/4'
   '-z+1/4, y+1/2, -x+3/4'
   '-z+1/4, y+1/2, x+3/4'
   'z+1/4, -y+1/2, -x+3/4'
   '-z+1/4, -y+1/2, -x+3/4'
   'z+1/4, y+1/2, x+3/4'
   'x+3/4, y+3/4, z'
   '-x+3/4, -y+3/4, -z'
   '-x+3/4, -y+3/4, z'
   'x+3/4, y+3/4, -z'
   '-x+3/4, y+3/4, -z'
   'x+3/4, -y+3/4, z'
   'x+3/4, -y+3/4, -z'
   '-x+3/4, y+3/4, z'
   'z+1/4, x+3/4, y+1/2'
   '-z+1/4, -x+3/4, -y+1/2'
   'z+1/4, -x+3/4, -y+1/2'
   '-z+1/4, x+3/4, y+1/2'
   '-z+1/4, -x+3/4, y+1/2'
   'z+1/4, x+3/4, -y+1/2'
   '-z+1/4, x+3/4, -y+1/2'
   'z+1/4, -x+3/4, y+1/2'
   'y+3/4, z+1/4, x+1/2'
   '-y+3/4, -z+1/4, -x+1/2'
   '-y+3/4, z+1/4, -x+1/2'
   'y+3/4, -z+1/4, x+1/2'
   'y+3/4, -z+1/4, -x+1/2'
   '-y+3/4, z+1/4, x+1/2'
   '-y+3/4, -z+1/4, x+1/2'
   'y+3/4, z+1/4, -x+1/2'
   'y+3/4, x+3/4, -z'
   '-y+3/4, -x+3/4, z'
   '-y+3/4, -x+3/4, -z'
   'y+3/4, x+3/4, z'
   'y+3/4, -x+3/4, z'
   '-y+3/4, x+3/4, -z'
   '-y+3/4, x+3/4, z'
   'y+3/4, -x+3/4, -z'
   'x+3/4, z+1/4, -y+1/2'
   '-x+3/4, -z+1/4, y+1/2'
   '-x+3/4, z+1/4, y+1/2'
   'x+3/4, -z+1/4, -y+1/2'
   '-x+3/4, -z+1/4, -y+1/2'
   'x+3/4, z+1/4, y+1/2'
   'x+3/4, -z+1/4, y+1/2'
   '-x+3/4, z+1/4, -y+1/2'
   'z+1/4, y+3/4, -x+1/2'
   '-z+1/4, -y+3/4, x+1/2'
   'z+1/4, -y+3/4, x+1/2'
   '-z+1/4, y+3/4, -x+1/2'
   '-z+1/4, y+3/4, x+1/2'
   'z+1/4, -y+3/4, -x+1/2'
   '-z+1/4, -y+3/4, -x+1/2'
   'z+1/4, y+3/4, x+1/2'
   'x+1/2, y+1/2, z+1/2'
   '-x+1/2, -y+1/2, -z+1/2'
   '-x+1/2, -y+1/2, z+1/2'
   'x+1/2, y+1/2, -z+1/2'
   '-x+1/2, y+1/2, -z+1/2'
   'x+1/2, -y+1/2, z+1/2'
   'x+1/2, -y+1/2, -z+1/2'
   '-x+1/2, y+1/2, z+1/2'
   'z+1/2, x+1/2, y+1/2'
   '-z+1/2, -x+1/2, -y+1/2'
   'z+1/2, -x+1/2, -y+1/2'
   '-z+1/2, x+1/2, y+1/2'
   '-z+1/2, -x+1/2, y+1/2'
   'z+1/2, x+1/2, -y+1/2'
   '-z+1/2, x+1/2, -y+1/2'
   'z+1/2, -x+1/2, y+1/2'
   'y+1/2, z+1/2, x+1/2'
   '-y+1/2, -z+1/2, -x+1/2'
   '-y+1/2, z+1/2, -x+1/2'
   'y+1/2, -z+1/2, x+1/2'
   'y+1/2, -z+1/2, -x+1/2'
   '-y+1/2, z+1/2, x+1/2'
   '-y+1/2, -z+1/2, x+1/2'
   'y+1/2, z+1/2, -x+1/2'
   'y+1/2, x+1/2, -z+1/2'
   '-y+1/2, -x+1/2, z+1/2'
   '-y+1/2, -x+1/2, -z+1/2'
   'y+1/2, x+1/2, z+1/2'
   'y+1/2, -x+1/2, z+1/2'
   '-y+1/2, x+1/2, -z+1/2'
   '-y+1/2, x+1/2, z+1/2'
   'y+1/2, -x+1/2, -z+1/2'
   'x+1/2, z+1/2, -y+1/2'
   '-x+1/2, -z+1/2, y+1/2'
   '-x+1/2, z+1/2, y+1/2'
   'x+1/2, -z+1/2, -y+1/2'
   '-x+1/2, -z+1/2, -y+1/2'
   'x+1/2, z+1/2, y+1/2'
   'x+1/2, -z+1/2, y+1/2'
   '-x+1/2, z+1/2, -y+1/2'
   'z+1/2, y+1/2, -x+1/2'
   '-z+1/2, -y+1/2, x+1/2'
   'z+1/2, -y+1/2, x+1/2'
   '-z+1/2, y+1/2, -x+1/2'
   '-z+1/2, y+1/2, x+1/2'
   'z+1/2, -y+1/2, -x+1/2'
   '-z+1/2, -y+1/2, -x+1/2'
   'z+1/2, y+1/2, x+1/2'
   'x+1/2, y+3/4, z+3/4'
   '-x+1/2, -y+3/4, -z+3/4'
   '-x+1/2, -y+3/4, z+3/4'
   'x+1/2, y+3/4, -z+3/4'
   '-x+1/2, y+3/4, -z+3/4'
   'x+1/2, -y+3/4, z+3/4'
   'x+1/2, -y+3/4, -z+3/4'
   '-x+1/2, y+3/4, z+3/4'
   'z+1/2, x+3/4, y+3/4'
   '-z+1/2, -x+3/4, -y+3/4'
   'z+1/2, -x+3/4, -y+3/4'
   '-z+1/2, x+3/4, y+3/4'
   '-z+1/2, -x+3/4, y+3/4'
   'z+1/2, x+3/4, -y+3/4'
   '-z+1/2, x+3/4, -y+3/4'
   'z+1/2, -x+3/4, y+3/4'
   'y+1/2, z+3/4, x+3/4'
   '-y+1/2, -z+3/4, -x+3/4'
   '-y+1/2, z+3/4, -x+3/4'
   'y+1/2, -z+3/4, x+3/4'
   'y+1/2, -z+3/4, -x+3/4'
   '-y+1/2, z+3/4, x+3/4'
   '-y+1/2, -z+3/4, x+3/4'
   'y+1/2, z+3/4, -x+3/4'
   'y+1/2, x+3/4, -z+3/4'
   '-y+1/2, -x+3/4, z+3/4'
   '-y+1/2, -x+3/4, -z+3/4'
   'y+1/2, x+3/4, z+3/4'
   'y+1/2, -x+3/4, z+3/4'
   '-y+1/2, x+3/4, -z+3/4'
   '-y+1/2, x+3/4, z+3/4'
   'y+1/2, -x+3/4, -z+3/4'
   'x+1/2, z+3/4, -y+3/4'
   '-x+1/2, -z+3/4, y+3/4'
   '-x+1/2, z+3/4, y+3/4'
   'x+1/2, -z+3/4, -y+3/4'
   '-x+1/2, -z+3/4, -y+3/4'
   'x+1/2, z+3/4, y+3/4'
   'x+1/2, -z+3/4, y+3/4'
   '-x+1/2, z+3/4, -y+3/4'
   'z+1/2, y+3/4, -x+3/4'
   '-z+1/2, -y+3/4, x+3/4'
   'z+1/2, -y+3/4, x+3/4'
   '-z+1/2, y+3/4, -x+3/4'
   '-z+1/2, y+3/4, x+3/4'
   'z+1/2, -y+3/4, -x+3/4'
   '-z+1/2, -y+3/4, -x+3/4'
   'z+1/2, y+3/4, x+3/4'
   'x+3/4, y+1/2, z+3/4'
   '-x+3/4, -y+1/2, -z+3/4'
   '-x+3/4, -y+1/2, z+3/4'
   'x+3/4, y+1/2, -z+3/4'
   '-x+3/4, y+1/2, -z+3/4'
   'x+3/4, -y+1/2, z+3/4'
   'x+3/4, -y+1/2, -z+3/4'
   '-x+3/4, y+1/2, z+3/4'
   'z+3/4, x+1/2, y+3/4'
   '-z+3/4, -x+1/2, -y+3/4'
   'z+3/4, -x+1/2, -y+3/4'
   '-z+3/4, x+1/2, y+3/4'
   '-z+3/4, -x+1/2, y+3/4'
   'z+3/4, x+1/2, -y+3/4'
   '-z+3/4, x+1/2, -y+3/4'
   'z+3/4, -x+1/2, y+3/4'
   'y+3/4, z+1/2, x+3/4'
   '-y+3/4, -z+1/2, -x+3/4'
   '-y+3/4, z+1/2, -x+3/4'
   'y+3/4, -z+1/2, x+3/4'
   'y+3/4, -z+1/2, -x+3/4'
   '-y+3/4, z+1/2, x+3/4'
   '-y+3/4, -z+1/2, x+3/4'
   'y+3/4, z+1/2, -x+3/4'
   'y+3/4, x+1/2, -z+3/4'
   '-y+3/4, -x+1/2, z+3/4'
   '-y+3/4, -x+1/2, -z+3/4'
   'y+3/4, x+1/2, z+3/4'
   'y+3/4, -x+1/2, z+3/4'
   '-y+3/4, x+1/2, -z+3/4'
   '-y+3/4, x+1/2, z+3/4'
   'y+3/4, -x+1/2, -z+3/4'
   'x+3/4, z+1/2, -y+3/4'
   '-x+3/4, -z+1/2, y+3/4'
   '-x+3/4, z+1/2, y+3/4'
   'x+3/4, -z+1/2, -y+3/4'
   '-x+3/4, -z+1/2, -y+3/4'
   'x+3/4, z+1/2, y+3/4'
   'x+3/4, -z+1/2, y+3/4'
   '-x+3/4, z+1/2, -y+3/4'
   'z+3/4, y+1/2, -x+3/4'
   '-z+3/4, -y+1/2, x+3/4'
   'z+3/4, -y+1/2, x+3/4'
   '-z+3/4, y+1/2, -x+3/4'
   '-z+3/4, y+1/2, x+3/4'
   'z+3/4, -y+1/2, -x+3/4'
   '-z+3/4, -y+1/2, -x+3/4'
   'z+3/4, y+1/2, x+3/4'
   'x+3/4, y+3/4, z+1/2'
   '-x+3/4, -y+3/4, -z+1/2'
   '-x+3/4, -y+3/4, z+1/2'
   'x+3/4, y+3/4, -z+1/2'
   '-x+3/4, y+3/4, -z+1/2'
   'x+3/4, -y+3/4, z+1/2'
   'x+3/4, -y+3/4, -z+1/2'
   '-x+3/4, y+3/4, z+1/2'
   'z+3/4, x+3/4, y+1/2'
   '-z+3/4, -x+3/4, -y+1/2'
   'z+3/4, -x+3/4, -y+1/2'
   '-z+3/4, x+3/4, y+1/2'
   '-z+3/4, -x+3/4, y+1/2'
   'z+3/4, x+3/4, -y+1/2'
   '-z+3/4, x+3/4, -y+1/2'
   'z+3/4, -x+3/4, y+1/2'
   'y+3/4, z+3/4, x+1/2'
   '-y+3/4, -z+3/4, -x+1/2'
   '-y+3/4, z+3/4, -x+1/2'
   'y+3/4, -z+3/4, x+1/2'
   'y+3/4, -z+3/4, -x+1/2'
   '-y+3/4, z+3/4, x+1/2'
   '-y+3/4, -z+3/4, x+1/2'
   'y+3/4, z+3/4, -x+1/2'
   'y+3/4, x+3/4, -z+1/2'
   '-y+3/4, -x+3/4, z+1/2'
   '-y+3/4, -x+3/4, -z+1/2'
   'y+3/4, x+3/4, z+1/2'
   'y+3/4, -x+3/4, z+1/2'
   '-y+3/4, x+3/4, -z+1/2'
   '-y+3/4, x+3/4, z+1/2'
   'y+3/4, -x+3/4, -z+1/2'
   'x+3/4, z+3/4, -y+1/2'
   '-x+3/4, -z+3/4, y+1/2'
   '-x+3/4, z+3/4, y+1/2'
   'x+3/4, -z+3/4, -y+1/2'
   '-x+3/4, -z+3/4, -y+1/2'
   'x+3/4, z+3/4, y+1/2'
   'x+3/4, -z+3/4, y+1/2'
   '-x+3/4, z+3/4, -y+1/2'
   'z+3/4, y+3/4, -x+1/2'
   '-z+3/4, -y+3/4, x+1/2'
   'z+3/4, -y+3/4, x+1/2'
   '-z+3/4, y+3/4, -x+1/2'
   '-z+3/4, y+3/4, x+1/2'
   'z+3/4, -y+3/4, -x+1/2'
   '-z+3/4, -y+3/4, -x+1/2'
   'z+3/4, y+3/4, x+1/2'

loop_
   _atom_site_label
   _atom_site_occupancy
   _atom_site_fract_x
   _atom_site_fract_y
   _atom_site_fract_z
   _atom_site_adp_type
   _atom_site_U_iso_or_equiv
   _atom_site_type_symbol
   Cr1        1.0     0.000000     0.000000     0.000000    Uiso  ? Cr
   Cr2        1.0     0.250000     0.250000     0.000000    Uiso  ? Cr
   Cr3        1.0     0.250000     0.000000     0.250000    Uiso  ? Cr
   Cr4        1.0     0.000000     0.250000     0.250000    Uiso  ? Cr
   N1         1.0     0.250000     0.250000     0.250000    Uiso  ? N
   N2         1.0     0.000000     0.000000     0.250000    Uiso  ? N
   N3         1.0     0.000000     0.250000     0.000000    Uiso  ? N
   N4         1.0     0.250000     0.000000     0.000000    Uiso  ? N
